src/tests/data/grids/ucte/frVoltageRegulatingXnode.uct
##C 2007.05.01
Generated by powsybl, 2019.09.23 17:47
Case date: 2019.09.24 19:30
##N
##ZFR
FFFFFF11              0 0        3.96708 0.00000 0.00000 0.00000
FFFFFF13              1 0        3.96708 0.00000 0.00000 0.00000
##ZXX
XXXXXX11              1 0        3.96708 0.00000 0.00000 0.00000
XXXXXX12 XNODE 2      1 0        3.96708 0.00000 0.00000 0.00000
XXXXXX13 XNODE 3      1 0        3.96708 0.00000 0.00000 0.00000
XXXXXX14              0 2 409.07 0.00000 0.00000 -1.0000 0.00000 2.00000 -2.0000 1.00000 -1.0000
##L
FFFFFF11 XXXXXX11 1 1 0.0000 0.2000 0.000000   5051 ABCDE
FFFFFF11 XXXXXX12 1 1 0.0000 0.2000 0.000000   5051
FFFFFF13 XXXXXX13 1 9 0.0000 0.2000 0.000000   5051
FFFFFF13 XXXXXX14 1 9 0.0000 0.2000 0.000000   5051 PQRST
##T
##R
